Circuit: * D:\ESTUDIO\Github\TC2\Tareas semanales\TS15\Simulaciones\Desnormalizado.asc


Date: Tue Nov 01 20:38:19 2022
Total elapsed time: 0.079 seconds.

tnom = 27
temp = 27
method = trap
totiter = 0
traniter = 0
tranpoints = 0
accept = 0
rejected = 0
matrix size = 3
fillins = 0
solver = Normal

