Circuit: * D:\UTN\Nivel 4\Teoría de los circuitos 2\Repositorio\TC2\TP6\Punto 3\Simulacion_LTspice\3.asc

Number of points per decade reduced from 100000 to 31299.

Date: Fri Sep 23 16:00:25 2022
Total elapsed time: 0.100 seconds.

tnom = 27
temp = 27
method = trap
totiter = 0
traniter = 0
tranpoints = 0
accept = 0
rejected = 0
matrix size = 3
fillins = 1
solver = Normal

