Circuit: * D:\ESTUDIO\Github\TC2\Trabajos practicos\TP7\Simulaciones\EJ_1A.asc

WARNING: Node N004 is floating.
WARNING: Node N005 is floating.


Date: Sun Oct 30 14:42:59 2022
Total elapsed time: 0.062 seconds.

tnom = 27
temp = 27
method = trap
totiter = 0
traniter = 0
tranpoints = 0
accept = 0
rejected = 0
matrix size = 6
fillins = 4
solver = Normal

