Circuit: * D:\ESTUDIO\Github\TC2\Trabajos practicos\TP7\Simulaciones\EJ_1C.asc


Date: Sun Oct 30 15:07:37 2022
Total elapsed time: 0.053 seconds.

tnom = 27
temp = 27
method = trap
totiter = 0
traniter = 0
tranpoints = 0
accept = 0
rejected = 0
matrix size = 4
fillins = 0
solver = Normal

