Circuit: * D:\ESTUDIO\Github\TC2\Trabajos practicos\TP7\Simulaciones\EJ_1B.asc


Date: Thu Oct 27 18:27:24 2022
Total elapsed time: 0.052 seconds.

tnom = 27
temp = 27
method = trap
totiter = 0
traniter = 0
tranpoints = 0
accept = 0
rejected = 0
matrix size = 3
fillins = 0
solver = Normal

