Circuit: * D:\ESTUDIO\Github\TC2\Tareas semanales\TS13\Simulaciones\Ej2.asc


Date: Fri Oct 14 17:23:35 2022
Total elapsed time: 0.047 seconds.

tnom = 27
temp = 27
method = trap
totiter = 0
traniter = 0
tranpoints = 0
accept = 0
rejected = 0
matrix size = 2
fillins = 0
solver = Normal

