Circuit: * D:\UTN\Nivel 4\Teoría de los circuitos 2\Repositorio\TC2\TP6\Punto 4\Simulacion_LTspice\4.asc

Number of points per decade reduced from 100000 to 12685.

Date: Fri Sep 23 15:52:02 2022
Total elapsed time: 0.100 seconds.

tnom = 27
temp = 27
method = trap
totiter = 0
traniter = 0
tranpoints = 0
accept = 0
rejected = 0
matrix size = 4
fillins = 1
solver = Normal

