Circuit: * D:\ESTUDIO\Github\TC2\Tareas semanales\TS14\Simulacion\TS14.asc


Date: Wed Oct 26 21:16:43 2022
Total elapsed time: 0.056 seconds.

tnom = 27
temp = 27
method = trap
totiter = 0
traniter = 0
tranpoints = 0
accept = 0
rejected = 0
matrix size = 3
fillins = 0
solver = Normal

