Circuit: * D:\ESTUDIO\Github\TC2\TS12\Simulaciones EJ1\Ej1.asc

WARNING: Node N004 is floating.


Date: Wed Oct 05 23:16:01 2022
Total elapsed time: 0.029 seconds.

tnom = 27
temp = 27
method = trap
totiter = 0
traniter = 0
tranpoints = 0
accept = 0
rejected = 0
matrix size = 5
fillins = 1
solver = Normal

