Circuit: * D:\ESTUDIO\Github\TC2\TS12\Simulaciones\Ej2_Z11.asc


Date: Thu Oct 06 17:36:32 2022
Total elapsed time: 0.024 seconds.

tnom = 27
temp = 27
method = trap
totiter = 0
traniter = 0
tranpoints = 0
accept = 0
rejected = 0
matrix size = 4
fillins = 1
solver = Normal

