Circuit: * D:\ESTUDIO\Github\TC2\TS12\Simulaciones\Ej2_Y22.asc


Date: Thu Oct 06 14:09:10 2022
Total elapsed time: 0.022 seconds.

tnom = 27
temp = 27
method = trap
totiter = 0
traniter = 0
tranpoints = 0
accept = 0
rejected = 0
matrix size = 4
fillins = 1
solver = Normal

